&share
 wrf_core = 'ARW',
 max_dom = 2,
 io_form_geogrid = 2,
 start_date = '2014-01-01_00:00:00','2014-01-01_00:00:00',
 end_date   = '2024-12-31_23:00:00','2024-12-31_23:00:00',
 interval_seconds = 3600
/

&geogrid
 parent_id         =   1,   1,
 parent_grid_ratio =   1,   3,
 i_parent_start    =   1,  38,
 j_parent_start    =   1,  46,
 e_we              =  151, 217,
 e_sn              =  158, 211,
 dx = 12000,
 dy = 12000,
 map_proj = 'lambert',
 ref_lat   =  31.091,
 ref_lon   = 121.531,
 truelat1  =  30.0,
 truelat2  =  60.0,
 stand_lon = 120.0,
 geog_data_res = '30s+default','30s+default',
 geog_data_path = '/data/SHARE/WPS_GEOG/'
/

&ungrib
 out_format = 'WPS',
 prefix = 'FILE',
/

&metgrid
 constants_name = 'TAVGSFC',
 fg_name = 'FILE',
 io_form_metgrid = 2,
/
